1671258596.041372s 1 https://dandiarchive.s3.amazonaws.com/zarr/17bedb8a-6b16-414a-bcc7-d4dc79f04e09/0/0/0/14/14/54?versionId=MT3D5L2POD8UUK567Ww_whgxwRzS2ogn
1671258596.087172s 1 https://api.dandiarchive.org/api/zarr/17bedb8a-6b16-414a-bcc7-d4dc79f04e09.zarr/0/0/0/14/14/54
